data_image0
_chemical_formula_structural       Mo2S4Mo2S4
_chemical_formula_sum              "Mo4 S8"
_cell_length_a       3.26712
_cell_length_b       5.51331
_cell_length_c       14.8769
_cell_angle_alpha    90
_cell_angle_beta     90
_cell_angle_gamma    90

_space_group_name_H-M_alt    "P 1"
_space_group_IT_number       1

loop_
  _space_group_symop_operation_xyz
  'x, y, z'

loop_
  _atom_site_type_symbol
  _atom_site_label
  _atom_site_symmetry_multiplicity
  _atom_site_fract_x
  _atom_site_fract_y
  _atom_site_fract_z
  _atom_site_occupancy
  Mo  Mo1       1.0  0.00000  0.33233  0.24997  1.0000
  Mo  Mo2       1.0  0.50822  0.16688  0.74993  1.0000
  S   S1        1.0  0.50822  0.16668  0.35250  1.0000
  S   S2        1.0  -0.00000  0.33253  0.85245  1.0000
  S   S3        1.0  0.50822  0.16668  0.14745  1.0000
  S   S4        1.0  -0.00000  0.33253  0.64740  1.0000
  Mo  Mo3       1.0  0.50822  0.83154  0.24997  1.0000
  Mo  Mo4       1.0  1.01645  0.66609  0.74993  1.0000
  S   S5        1.0  1.01645  0.66589  0.35250  1.0000
  S   S6        1.0  0.50822  0.83174  0.85245  1.0000
  S   S7        1.0  1.01645  0.66589  0.14745  1.0000
  S   S8        1.0  0.50822  0.83174  0.64740  1.0000
